<?xml version="1.0" encoding="UTF-8"?>

<!-- generated on 2023-08-13 16:41:26 by Eclipse SUMO netedit Version 1.16.0
<configuration xmlns:xsi="http://www.w3.org/2001/XMLSchema-instance" xsi:noNamespaceSchemaLocation="http://sumo.dlr.de/xsd/netconvertConfiguration.xsd">

    <input>
        <sumo-net-file value="/home/rodrigo/thesis-scenarios/highteleporttime/osm.net.xml"/>
    </input>

    <output>
        <output-file value="/home/rodrigo/thesis-scenarios/highteleporttime/osm.net.xml"/>
    </output>

    <processing>
        <geometry.min-radius.fix.railways value="false"/>
        <geometry.max-grade.fix value="false"/>
        <offset.disable-normalization value="true"/>
        <lefthand value="0"/>
    </processing>

    <junctions>
        <no-turnarounds value="true"/>
        <junctions.corner-detail value="5"/>
        <junctions.limit-turn-speed value="5.50"/>
        <rectangular-lane-cut value="0"/>
    </junctions>

    <pedestrian>
        <walkingareas value="0"/>
    </pedestrian>

</configuration>
-->

<net version="1.16" junctionCornerDetail="5" limitTurnSpeed="5.50" xmlns:xsi="http://www.w3.org/2001/XMLSchema-instance" xsi:noNamespaceSchemaLocation="http://sumo.dlr.de/xsd/net_file.xsd">

    <location netOffset="0.00,0.00" convBoundary="-500.00,-1000.00,500.00,500.00" origBoundary="-10000000000.00,-10000000000.00,10000000000.00,10000000000.00" projParameter="!"/>

    <edge id=":junction_0" function="internal">
        <lane id=":junction_0_0" index="0" speed="6.51" length="9.03" shape="-8.00,13.60 -8.35,11.15 -9.40,9.40 -11.15,8.35 -13.60,8.00"/>
    </edge>
    <edge id=":junction_1" function="internal">
        <lane id=":junction_1_0" index="0" speed="20.82" length="27.20" shape="-8.00,13.60 -8.00,-13.60"/>
    </edge>
    <edge id=":junction_2" function="internal">
        <lane id=":junction_2_0" index="0" speed="11.87" length="32.49" shape="-8.00,13.60 -5.88,6.47 -0.53,-0.53 6.48,-5.88 13.60,-8.00"/>
    </edge>
    <edge id=":junction_3" function="internal">
        <lane id=":junction_3_0" index="0" speed="8.00" length="14.19" shape="-4.80,13.60 -5.35,9.75 -7.00,7.00 -9.75,5.35 -13.60,4.80"/>
    </edge>
    <edge id=":junction_4" function="internal">
        <lane id=":junction_4_0" index="0" speed="20.82" length="27.20" shape="-4.80,13.60 -4.80,-13.60"/>
    </edge>
    <edge id=":junction_5" function="internal">
        <lane id=":junction_5_0" index="0" speed="11.07" length="28.10" shape="-4.80,13.60 -3.14,7.07 1.15,1.15 7.07,-3.14 13.60,-4.80"/>
    </edge>
    <edge id=":junction_6" function="internal">
        <lane id=":junction_6_0" index="0" speed="9.26" length="19.35" shape="-1.60,13.60 -2.35,8.35 -4.60,4.60 -8.35,2.35 -13.60,1.60"/>
    </edge>
    <edge id=":junction_7" function="internal">
        <lane id=":junction_7_0" index="0" speed="20.82" length="27.20" shape="-1.60,13.60 -1.60,-13.60"/>
    </edge>
    <edge id=":junction_8" function="internal">
        <lane id=":junction_8_0" index="0" speed="10.10" length="23.22" shape="-1.60,13.60 -0.23,8.20 3.31,3.31 8.20,-0.23 13.60,-1.60"/>
    </edge>
    <edge id=":junction_9" function="internal">
        <lane id=":junction_9_0" index="0" speed="6.51" length="9.03" shape="13.60,8.00 11.15,8.35 9.40,9.40 8.35,11.15 8.00,13.60"/>
    </edge>
    <edge id=":junction_10" function="internal">
        <lane id=":junction_10_0" index="0" speed="27.77" length="27.20" shape="13.60,8.00 -13.60,8.00"/>
    </edge>
    <edge id=":junction_11" function="internal">
        <lane id=":junction_11_0" index="0" speed="11.87" length="5.83" shape="13.60,8.00 8.02,6.33"/>
    </edge>
    <edge id=":junction_12" function="internal">
        <lane id=":junction_12_0" index="0" speed="8.00" length="14.19" shape="13.60,4.80 9.75,5.35 7.00,7.00 5.35,9.75 4.80,13.60"/>
    </edge>
    <edge id=":junction_13" function="internal">
        <lane id=":junction_13_0" index="0" speed="27.77" length="27.20" shape="13.60,4.80 -13.60,4.80"/>
    </edge>
    <edge id=":junction_14" function="internal">
        <lane id=":junction_14_0" index="0" speed="11.07" length="8.84" shape="13.60,4.80 7.07,3.14 5.37,1.91"/>
    </edge>
    <edge id=":junction_15" function="internal">
        <lane id=":junction_15_0" index="0" speed="9.26" length="19.35" shape="13.60,1.60 8.35,2.35 4.60,4.60 2.35,8.35 1.60,13.60"/>
    </edge>
    <edge id=":junction_16" function="internal">
        <lane id=":junction_16_0" index="0" speed="27.77" length="27.20" shape="13.60,1.60 -13.60,1.60"/>
    </edge>
    <edge id=":junction_17" function="internal">
        <lane id=":junction_17_0" index="0" speed="10.10" length="23.22" shape="13.60,1.60 8.20,0.23 3.31,-3.31 -0.23,-8.20 -1.60,-13.60"/>
    </edge>
    <edge id=":junction_36" function="internal">
        <lane id=":junction_36_0" index="0" speed="11.87" length="26.67" shape="8.02,6.33 6.47,5.87 -0.53,0.53 -5.88,-6.48 -8.00,-13.60"/>
    </edge>
    <edge id=":junction_37" function="internal">
        <lane id=":junction_37_0" index="0" speed="11.07" length="19.27" shape="5.37,1.91 1.15,-1.15 -3.14,-7.07 -4.80,-13.60"/>
    </edge>
    <edge id=":junction_18" function="internal">
        <lane id=":junction_18_0" index="0" speed="6.51" length="9.03" shape="8.00,-13.60 8.35,-11.15 9.40,-9.40 11.15,-8.35 13.60,-8.00"/>
    </edge>
    <edge id=":junction_19" function="internal">
        <lane id=":junction_19_0" index="0" speed="20.82" length="27.20" shape="8.00,-13.60 8.00,13.60"/>
    </edge>
    <edge id=":junction_20" function="internal">
        <lane id=":junction_20_0" index="0" speed="11.87" length="32.49" shape="8.00,-13.60 5.88,-6.47 0.53,0.53 -6.48,5.88 -13.60,8.00"/>
    </edge>
    <edge id=":junction_21" function="internal">
        <lane id=":junction_21_0" index="0" speed="8.00" length="14.19" shape="4.80,-13.60 5.35,-9.75 7.00,-7.00 9.75,-5.35 13.60,-4.80"/>
    </edge>
    <edge id=":junction_22" function="internal">
        <lane id=":junction_22_0" index="0" speed="20.82" length="27.20" shape="4.80,-13.60 4.80,13.60"/>
    </edge>
    <edge id=":junction_23" function="internal">
        <lane id=":junction_23_0" index="0" speed="11.07" length="28.10" shape="4.80,-13.60 3.14,-7.07 -1.15,-1.15 -7.07,3.14 -13.60,4.80"/>
    </edge>
    <edge id=":junction_24" function="internal">
        <lane id=":junction_24_0" index="0" speed="9.26" length="19.35" shape="1.60,-13.60 2.35,-8.35 4.60,-4.60 8.35,-2.35 13.60,-1.60"/>
    </edge>
    <edge id=":junction_25" function="internal">
        <lane id=":junction_25_0" index="0" speed="20.82" length="27.20" shape="1.60,-13.60 1.60,13.60"/>
    </edge>
    <edge id=":junction_26" function="internal">
        <lane id=":junction_26_0" index="0" speed="10.10" length="23.22" shape="1.60,-13.60 0.23,-8.20 -3.31,-3.31 -8.20,0.23 -13.60,1.60"/>
    </edge>
    <edge id=":junction_27" function="internal">
        <lane id=":junction_27_0" index="0" speed="6.51" length="9.03" shape="-13.60,-8.00 -11.15,-8.35 -9.40,-9.40 -8.35,-11.15 -8.00,-13.60"/>
    </edge>
    <edge id=":junction_28" function="internal">
        <lane id=":junction_28_0" index="0" speed="27.77" length="27.20" shape="-13.60,-8.00 13.60,-8.00"/>
    </edge>
    <edge id=":junction_29" function="internal">
        <lane id=":junction_29_0" index="0" speed="11.87" length="5.83" shape="-13.60,-8.00 -8.02,-6.33"/>
    </edge>
    <edge id=":junction_30" function="internal">
        <lane id=":junction_30_0" index="0" speed="8.00" length="14.19" shape="-13.60,-4.80 -9.75,-5.35 -7.00,-7.00 -5.35,-9.75 -4.80,-13.60"/>
    </edge>
    <edge id=":junction_31" function="internal">
        <lane id=":junction_31_0" index="0" speed="27.77" length="27.20" shape="-13.60,-4.80 13.60,-4.80"/>
    </edge>
    <edge id=":junction_32" function="internal">
        <lane id=":junction_32_0" index="0" speed="11.07" length="8.84" shape="-13.60,-4.80 -7.07,-3.14 -5.37,-1.91"/>
    </edge>
    <edge id=":junction_33" function="internal">
        <lane id=":junction_33_0" index="0" speed="9.26" length="19.35" shape="-13.60,-1.60 -8.35,-2.35 -4.60,-4.60 -2.35,-8.35 -1.60,-13.60"/>
    </edge>
    <edge id=":junction_34" function="internal">
        <lane id=":junction_34_0" index="0" speed="27.77" length="27.20" shape="-13.60,-1.60 13.60,-1.60"/>
    </edge>
    <edge id=":junction_35" function="internal">
        <lane id=":junction_35_0" index="0" speed="10.10" length="23.22" shape="-13.60,-1.60 -8.20,-0.23 -3.31,3.31 0.23,8.20 1.60,13.60"/>
    </edge>
    <edge id=":junction_38" function="internal">
        <lane id=":junction_38_0" index="0" speed="11.87" length="26.67" shape="-8.02,-6.33 -6.47,-5.88 0.53,-0.53 5.88,6.48 8.00,13.60"/>
    </edge>
    <edge id=":junction_39" function="internal">
        <lane id=":junction_39_0" index="0" speed="11.07" length="19.27" shape="-5.37,-1.91 -1.15,1.15 3.14,7.07 4.80,13.60"/>
    </edge>
    <edge id=":junction2_0" function="internal">
        <lane id=":junction2_0_0" index="0" speed="6.51" length="9.03" shape="-8.00,-486,40 -8.35,-488.85 -9.40,-490.60 -11.15,-491.65 -13.60,-492.00"/>
    </edge>
    <edge id=":junction2_1" function="internal">
        <lane id=":junction2_1_0" index="0" speed="13.88" length="27.20" shape="-8.00,-486,40 -8.00,-513.60"/>
    </edge>
    <edge id=":junction2_2" function="internal">
        <lane id=":junction2_2_0" index="0" speed="11.87" length="5.83" shape="-8.00,-486,40 -6.33,-491.98"/>
    </edge>
    <edge id=":junction2_3" function="internal">
        <lane id=":junction2_3_0" index="0" speed="8.00" length="4.07" shape="-4.80,-486,40 -5.35,-490.25 -5.44,-490.40"/>
    </edge>
    <edge id=":junction2_4" function="internal">
        <lane id=":junction2_4_0" index="0" speed="13.88" length="27.20" shape="-4.80,-486,40 -4.80,-513.60"/>
    </edge>
    <edge id=":junction2_5" function="internal">
        <lane id=":junction2_5_0" index="0" speed="11.07" length="8.84" shape="-4.80,-486,40 -3.14,-492.93 -1.91,-494.63"/>
    </edge>
    <edge id=":junction2_6" function="internal">
        <lane id=":junction2_6_0" index="0" speed="9.26" length="5.01" shape="-1.60,-486,40 -2.31,-491.36"/>
    </edge>
    <edge id=":junction2_7" function="internal">
        <lane id=":junction2_7_0" index="0" speed="13.88" length="27.20" shape="-1.60,-486,40 -1.60,-513.60"/>
    </edge>
    <edge id=":junction2_8" function="internal">
        <lane id=":junction2_8_0" index="0" speed="10.10" length="2.96" shape="-1.60,-486,40 -0.87,-489.27"/>
    </edge>
    <edge id=":junction2_36" function="internal">
        <lane id=":junction2_36_0" index="0" speed="11.87" length="26.67" shape="-6.33,-491.98 -5.88,-493.53 -0.53,-500.53 6.48,-505.88 13.60,-508.00"/>
    </edge>
    <edge id=":junction2_37" function="internal">
        <lane id=":junction2_37_0" index="0" speed="8.00" length="10.13" shape="-5.44,-490.40 -7.00,-493.00 -9.75,-494.65 -13.60,-495.20"/>
    </edge>
    <edge id=":junction2_38" function="internal">
        <lane id=":junction2_38_0" index="0" speed="11.07" length="19.27" shape="-1.91,-494.63 1.15,-498.85 7.07,-503.14 13.60,-504.80"/>
    </edge>
    <edge id=":junction2_39" function="internal">
        <lane id=":junction2_39_0" index="0" speed="9.26" length="14.34" shape="-2.31,-491.36 -2.35,-491.65 -4.60,-495.40 -8.35,-497.65 -13.60,-498.40"/>
    </edge>
    <edge id=":junction2_40" function="internal">
        <lane id=":junction2_40_0" index="0" speed="10.10" length="20.25" shape="-0.87,-489.27 -0.23,-491.80 3.31,-496.69 8.20,-500.23 13.60,-501.60"/>
    </edge>
    <edge id=":junction2_9" function="internal">
        <lane id=":junction2_9_0" index="0" speed="6.51" length="9.03" shape="13.60,-492.00 11.15,-491.65 9.40,-490.60 8.35,-488.85 8.00,-486,40"/>
    </edge>
    <edge id=":junction2_10" function="internal">
        <lane id=":junction2_10_0" index="0" speed="13.88" length="27.20" shape="13.60,-492.00 -13.60,-492.00"/>
    </edge>
    <edge id=":junction2_11" function="internal">
        <lane id=":junction2_11_0" index="0" speed="11.87" length="15.62" shape="13.60,-492.00 6.47,-494.12 -0.03,-499.08"/>
    </edge>
    <edge id=":junction2_12" function="internal">
        <lane id=":junction2_12_0" index="0" speed="8.00" length="4.07" shape="13.60,-495.20 9.75,-494.65 9.60,-494.56"/>
    </edge>
    <edge id=":junction2_13" function="internal">
        <lane id=":junction2_13_0" index="0" speed="13.88" length="27.20" shape="13.60,-495.20 -13.60,-495.20"/>
    </edge>
    <edge id=":junction2_14" function="internal">
        <lane id=":junction2_14_0" index="0" speed="11.07" length="10.51" shape="13.60,-495.20 7.07,-496.86 4.01,-499.07"/>
    </edge>
    <edge id=":junction2_15" function="internal">
        <lane id=":junction2_15_0" index="0" speed="9.26" length="5.01" shape="13.60,-498.40 8.64,-497.69"/>
    </edge>
    <edge id=":junction2_16" function="internal">
        <lane id=":junction2_16_0" index="0" speed="13.88" length="27.20" shape="13.60,-498.40 -13.60,-498.40"/>
    </edge>
    <edge id=":junction2_17" function="internal">
        <lane id=":junction2_17_0" index="0" speed="10.10" length="2.96" shape="13.60,-498.40 10.73,-499.13"/>
    </edge>
    <edge id=":junction2_41" function="internal">
        <lane id=":junction2_41_0" index="0" speed="11.87" length="16.88" shape="-0.03,-499.08 -0.53,-499.47 -5.88,-506.47 -8.00,-513.60"/>
    </edge>
    <edge id=":junction2_42" function="internal">
        <lane id=":junction2_42_0" index="0" speed="8.00" length="10.13" shape="9.60,-494.56 7.00,-493.00 5.35,-490.25 4.80,-486,40"/>
    </edge>
    <edge id=":junction2_43" function="internal">
        <lane id=":junction2_43_0" index="0" speed="11.07" length="17.59" shape="4.01,-499.07 1.15,-501.15 -3.14,-507.07 -4.80,-513.60"/>
    </edge>
    <edge id=":junction2_44" function="internal">
        <lane id=":junction2_44_0" index="0" speed="9.26" length="14.34" shape="8.64,-497.69 8.35,-497.65 4.60,-495.40 2.35,-491.65 1.60,-486,40"/>
    </edge>
    <edge id=":junction2_45" function="internal">
        <lane id=":junction2_45_0" index="0" speed="10.10" length="20.25" shape="10.73,-499.13 8.20,-499.77 3.31,-503.31 -0.23,-508.20 -1.60,-513.60"/>
    </edge>
    <edge id=":junction2_18" function="internal">
        <lane id=":junction2_18_0" index="0" speed="6.51" length="9.03" shape="8.00,-513.60 8.35,-511.15 9.40,-509.40 11.15,-508.35 13.60,-508.00"/>
    </edge>
    <edge id=":junction2_19" function="internal">
        <lane id=":junction2_19_0" index="0" speed="13.88" length="27.20" shape="8.00,-513.60 8.00,-486,40"/>
    </edge>
    <edge id=":junction2_20" function="internal">
        <lane id=":junction2_20_0" index="0" speed="11.87" length="5.83" shape="8.00,-513.60 6.33,-508.02"/>
    </edge>
    <edge id=":junction2_21" function="internal">
        <lane id=":junction2_21_0" index="0" speed="8.00" length="4.07" shape="4.80,-513.60 5.35,-509.75 5.44,-509.60"/>
    </edge>
    <edge id=":junction2_22" function="internal">
        <lane id=":junction2_22_0" index="0" speed="13.88" length="27.20" shape="4.80,-513.60 4.80,-486,40"/>
    </edge>
    <edge id=":junction2_23" function="internal">
        <lane id=":junction2_23_0" index="0" speed="11.07" length="8.84" shape="4.80,-513.60 3.14,-507.07 1.91,-505.37"/>
    </edge>
    <edge id=":junction2_24" function="internal">
        <lane id=":junction2_24_0" index="0" speed="9.26" length="5.01" shape="1.60,-513.60 2.31,-508.64"/>
    </edge>
    <edge id=":junction2_25" function="internal">
        <lane id=":junction2_25_0" index="0" speed="13.88" length="27.20" shape="1.60,-513.60 1.60,-486,40"/>
    </edge>
    <edge id=":junction2_26" function="internal">
        <lane id=":junction2_26_0" index="0" speed="10.10" length="2.96" shape="1.60,-513.60 0.87,-510.73"/>
    </edge>
    <edge id=":junction2_46" function="internal">
        <lane id=":junction2_46_0" index="0" speed="11.87" length="26.67" shape="6.33,-508.02 5.88,-506.47 0.53,-499.47 -6.48,-494.12 -13.60,-492.00"/>
    </edge>
    <edge id=":junction2_47" function="internal">
        <lane id=":junction2_47_0" index="0" speed="8.00" length="10.13" shape="5.44,-509.60 7.00,-507.00 9.75,-505.35 13.60,-504.80"/>
    </edge>
    <edge id=":junction2_48" function="internal">
        <lane id=":junction2_48_0" index="0" speed="11.07" length="19.27" shape="1.91,-505.37 -1.15,-501.15 -7.07,-496.86 -13.60,-495.20"/>
    </edge>
    <edge id=":junction2_49" function="internal">
        <lane id=":junction2_49_0" index="0" speed="9.26" length="14.34" shape="2.31,-508.64 2.35,-508.35 4.60,-504.60 8.35,-502.35 13.60,-501.60"/>
    </edge>
    <edge id=":junction2_50" function="internal">
        <lane id=":junction2_50_0" index="0" speed="10.10" length="20.25" shape="0.87,-510.73 0.23,-508.20 -3.31,-503.31 -8.20,-499.77 -13.60,-498.40"/>
    </edge>
    <edge id=":junction2_27" function="internal">
        <lane id=":junction2_27_0" index="0" speed="6.51" length="9.03" shape="-13.60,-508.00 -11.15,-508.35 -9.40,-509.40 -8.35,-511.15 -8.00,-513.60"/>
    </edge>
    <edge id=":junction2_28" function="internal">
        <lane id=":junction2_28_0" index="0" speed="13.88" length="27.20" shape="-13.60,-508.00 13.60,-508.00"/>
    </edge>
    <edge id=":junction2_29" function="internal">
        <lane id=":junction2_29_0" index="0" speed="11.87" length="15.62" shape="-13.60,-508.00 -6.47,-505.88 0.03,-500.92"/>
    </edge>
    <edge id=":junction2_30" function="internal">
        <lane id=":junction2_30_0" index="0" speed="8.00" length="4.07" shape="-13.60,-504.80 -9.75,-505.35 -9.60,-505.44"/>
    </edge>
    <edge id=":junction2_31" function="internal">
        <lane id=":junction2_31_0" index="0" speed="13.88" length="27.20" shape="-13.60,-504.80 13.60,-504.80"/>
    </edge>
    <edge id=":junction2_32" function="internal">
        <lane id=":junction2_32_0" index="0" speed="11.07" length="10.51" shape="-13.60,-504.80 -7.07,-503.14 -4.01,-500.93"/>
    </edge>
    <edge id=":junction2_33" function="internal">
        <lane id=":junction2_33_0" index="0" speed="9.26" length="5.01" shape="-13.60,-501.60 -8.64,-502.31"/>
    </edge>
    <edge id=":junction2_34" function="internal">
        <lane id=":junction2_34_0" index="0" speed="13.88" length="27.20" shape="-13.60,-501.60 13.60,-501.60"/>
    </edge>
    <edge id=":junction2_35" function="internal">
        <lane id=":junction2_35_0" index="0" speed="10.10" length="2.96" shape="-13.60,-501.60 -10.73,-500.87"/>
    </edge>
    <edge id=":junction2_51" function="internal">
        <lane id=":junction2_51_0" index="0" speed="11.87" length="16.88" shape="0.03,-500.92 0.53,-500.53 5.88,-493.53 8.00,-486,40"/>
    </edge>
    <edge id=":junction2_52" function="internal">
        <lane id=":junction2_52_0" index="0" speed="8.00" length="10.13" shape="-9.60,-505.44 -7.00,-507.00 -5.35,-509.75 -4.80,-513.60"/>
    </edge>
    <edge id=":junction2_53" function="internal">
        <lane id=":junction2_53_0" index="0" speed="11.07" length="17.59" shape="-4.01,-500.93 -1.15,-498.85 3.14,-492.93 4.80,-486,40"/>
    </edge>
    <edge id=":junction2_54" function="internal">
        <lane id=":junction2_54_0" index="0" speed="9.26" length="14.34" shape="-8.64,-502.31 -8.35,-502.35 -4.60,-504.60 -2.35,-508.35 -1.60,-513.60"/>
    </edge>
    <edge id=":junction2_55" function="internal">
        <lane id=":junction2_55_0" index="0" speed="10.10" length="20.25" shape="-10.73,-500.87 -8.20,-500.23 -3.31,-496.69 0.23,-491.80 1.60,-486,40"/>
    </edge>

    <edge id="end1_junction" from="end1" to="junction" priority="-1">
        <lane id="end1_junction_0" index="0" speed="27.77" length="486.40" shape="-8.00,500.00 -8.00,13.60"/>
        <lane id="end1_junction_1" index="1" speed="27.77" length="486.40" shape="-4.80,500.00 -4.80,13.60"/>
        <lane id="end1_junction_2" index="2" speed="27.77" length="486.40" shape="-1.60,500.00 -1.60,13.60"/>
    </edge>
    <edge id="end2_junction" from="end2" to="junction" priority="-1">
        <lane id="end2_junction_0" index="0" speed="27.77" length="486.40" shape="500.00,8.00 13.60,8.00"/>
        <lane id="end2_junction_1" index="1" speed="27.77" length="486.40" shape="500.00,4.80 13.60,4.80"/>
        <lane id="end2_junction_2" index="2" speed="27.77" length="486.40" shape="500.00,1.60 13.60,1.60"/>
    </edge>
    <edge id="end3_junction" from="junction2" to="junction" priority="-1">
        <lane id="end3_junction_0" index="0" speed="13.88" length="486.40" shape="8.00,-486,40 8.00,-13.60"/>
        <lane id="end3_junction_1" index="1" speed="13.88" length="486.40" shape="4.80,-486,40 4.80,-13.60"/>
        <lane id="end3_junction_2" index="2" speed="13.88" length="486.40" shape="1.60,-486,40 1.60,-13.60"/>
    </edge>
    <edge id="end4_junction" from="end4" to="junction" priority="-1">
        <lane id="end4_junction_0" index="0" speed="27.77" length="486.40" shape="-500.00,-8.00 -13.60,-8.00"/>
        <lane id="end4_junction_1" index="1" speed="27.77" length="486.40" shape="-500.00,-4.80 -13.60,-4.80"/>
        <lane id="end4_junction_2" index="2" speed="27.77" length="486.40" shape="-500.00,-1.60 -13.60,-1.60"/>
    </edge>
    <edge id="end5_junction" from="end5" to="junction2" priority="-1">
        <lane id="end5_junction_0" index="0" speed="13.88" length="486.40" shape="500.00,-492.00 13.60,-492.00"/>
        <lane id="end5_junction_1" index="1" speed="13.88" length="486.40" shape="500.00,-495.20 13.60,-495.20"/>
        <lane id="end5_junction_2" index="2" speed="13.88" length="486.40" shape="500.00,-498.40 13.60,-498.40"/>
    </edge>
    <edge id="end6_junction" from="end6" to="junction2" priority="-1">
        <lane id="end6_junction_0" index="0" speed="13.88" length="486.40" shape="8.00,-1000.00 8.00,-513.60"/>
        <lane id="end6_junction_1" index="1" speed="13.88" length="486.40" shape="4.80,-1000.00 4.80,-513.60"/>
        <lane id="end6_junction_2" index="2" speed="13.88" length="486.40" shape="1.60,-1000.00 1.60,-513.60"/>
    </edge>
    <edge id="end7_junction" from="end7" to="junction2" priority="-1">
        <lane id="end7_junction_0" index="0" speed="13.88" length="486.40" shape="-500.00,-508.00 -13.60,-508.00"/>
        <lane id="end7_junction_1" index="1" speed="13.88" length="486.40" shape="-500.00,-504.80 -13.60,-504.80"/>
        <lane id="end7_junction_2" index="2" speed="13.88" length="486.40" shape="-500.00,-501.60 -13.60,-501.60"/>
    </edge>
    <edge id="junction_end1" from="junction" to="end1" priority="-1">
        <lane id="junction_end1_0" index="0" speed="27.77" length="486.40" shape="8.00,13.60 8.00,500.00"/>
        <lane id="junction_end1_1" index="1" speed="27.77" length="486.40" shape="4.80,13.60 4.80,500.00"/>
        <lane id="junction_end1_2" index="2" speed="27.77" length="486.40" shape="1.60,13.60 1.60,500.00"/>
    </edge>
    <edge id="junction_end2" from="junction" to="end2" priority="-1">
        <lane id="junction_end2_0" index="0" speed="27.77" length="486.40" shape="13.60,-8.00 500.00,-8.00"/>
        <lane id="junction_end2_1" index="1" speed="27.77" length="486.40" shape="13.60,-4.80 500.00,-4.80"/>
        <lane id="junction_end2_2" index="2" speed="27.77" length="486.40" shape="13.60,-1.60 500.00,-1.60"/>
    </edge>
    <edge id="junction_end3" from="junction" to="junction2" priority="-1">
        <lane id="junction_end3_0" index="0" speed="13.88" length="486.40" shape="-8.00,-13.60 -8.00,-486,40"/>
        <lane id="junction_end3_1" index="1" speed="13.88" length="486.40" shape="-4.80,-13.60 -4.80,-486,40"/>
        <lane id="junction_end3_2" index="2" speed="13.88" length="486.40" shape="-1.60,-13.60 -1.60,-486,40"/>
    </edge>
    <edge id="junction_end4" from="junction" to="end4" priority="-1">
        <lane id="junction_end4_0" index="0" speed="27.77" length="486.40" shape="-13.60,8.00 -500.00,8.00"/>
        <lane id="junction_end4_1" index="1" speed="27.77" length="486.40" shape="-13.60,4.80 -500.00,4.80"/>
        <lane id="junction_end4_2" index="2" speed="27.77" length="486.40" shape="-13.60,1.60 -500.00,1.60"/>
    </edge>
    <edge id="junction_end5" from="junction2" to="end5" priority="-1">
        <lane id="junction_end5_0" index="0" speed="13.88" length="486.40" shape="13.60,-508.00 500.00,-508.00"/>
        <lane id="junction_end5_1" index="1" speed="13.88" length="486.40" shape="13.60,-504.80 500.00,-504.80"/>
        <lane id="junction_end5_2" index="2" speed="13.88" length="486.40" shape="13.60,-501.60 500.00,-501.60"/>
    </edge>
    <edge id="junction_end6" from="junction2" to="end6" priority="-1">
        <lane id="junction_end6_0" index="0" speed="13.88" length="486.40" shape="-8.00,-513.60 -8.00,-1000.00"/>
        <lane id="junction_end6_1" index="1" speed="13.88" length="486.40" shape="-4.80,-513.60 -4.80,-1000.00"/>
        <lane id="junction_end6_2" index="2" speed="13.88" length="486.40" shape="-1.60,-513.60 -1.60,-1000.00"/>
    </edge>
    <edge id="junction_end7" from="junction2" to="end7" priority="-1">
        <lane id="junction_end7_0" index="0" speed="13.88" length="486.40" shape="-13.60,-492.00 -500.00,-492.00"/>
        <lane id="junction_end7_1" index="1" speed="13.88" length="486.40" shape="-13.60,-495.20 -500.00,-495.20"/>
        <lane id="junction_end7_2" index="2" speed="13.88" length="486.40" shape="-13.60,-498.40 -500.00,-498.40"/>
    </edge>

    <tlLogic id="junction" type="static" programID="0" offset="0">
        <phase duration="30" state="rrGrrGrrGrrrrrrrrrrrrrrrrrrGrrGrrGrr"/>
        <phase duration="6"  state="rryrryrryrrrrrrrrrrrrrrrrrryrryrryrr"/>
        <phase duration="3"  state="rrrrrrrrrrrrrrrrrrrrrrrrrrrrrrrrrrrr"/>
        <phase duration="30" state="GrrGrrGrrrrGrrGrrGrrrrrrrrrrrrrrrrrr"/>
        <phase duration="6"  state="yrryrryrrrryrryrryrrrrrrrrrrrrrrrrrr"/>
        <phase duration="3"  state="rrrrrrrrrrrrrrrrrrrrrrrrrrrrrrrrrrrr"/>
        <phase duration="30" state="rrrrrrrrrGrrGrrGrrrrGrrGrrGrrrrrrrrr"/>
        <phase duration="6"  state="rrrrrrrrryrryrryrrrryrryrryrrrrrrrrr"/>
        <phase duration="3"  state="rrrrrrrrrrrrrrrrrrrrrrrrrrrrrrrrrrrr"/>
        <phase duration="30" state="rrrrrrrrrrrrrrrrrrGrrGrrGrrrrGrrGrrG"/>
        <phase duration="6"  state="rrrrrrrrrrrrrrrrrryrryrryrrrryrryrry"/>
        <phase duration="3"  state="rrrrrrrrrrrrrrrrrrrrrrrrrrrrrrrrrrrr"/>
        <phase duration="30" state="rGrrGrrGrrrrrrrrrrrGrrGrrGrrrrrrrrrr"/>
        <phase duration="6"  state="ryrryrryrrrrrrrrrrryrryrryrrrrrrrrrr"/>
        <phase duration="3"  state="rrrrrrrrrrrrrrrrrrrrrrrrrrrrrrrrrrrr"/>
        <phase duration="30" state="rrrrrrrrrrGrrGrrGrrrrrrrrrrrGrrGrrGr"/>
        <phase duration="6"  state="rrrrrrrrrryrryrryrrrrrrrrrrryrryrryr"/>
        <phase duration="3"  state="rrrrrrrrrrrrrrrrrrrrrrrrrrrrrrrrrrrr"/>
    </tlLogic>
    <tlLogic id="junction2" type="static" programID="0" offset="0">
        <phase duration="15" state="rrrrrrrrrrrrrrrrrrGrrGrrGrrrrGrrGrrG"/>
        <phase duration="6"  state="rrrrrrrrrrrrrrrrrryrryrryrrrryrryrry"/>
        <phase duration="3"  state="rrrrrrrrrrrrrrrrrrrrrrrrrrrrrrrrrrrr"/>
        <phase duration="15" state="rGrrGrrGrrrrrrrrrrrGrrGrrGrrrrrrrrrr"/>
        <phase duration="6"  state="ryrryrryrrrrrrrrrrryrryrryrrrrrrrrrr"/>
        <phase duration="3"  state="rrrrrrrrrrrrrrrrrrrrrrrrrrrrrrrrrrrr"/>
        <phase duration="15" state="rrrrrrrrrrGrrGrrGrrrrrrrrrrrGrrGrrGr"/>
        <phase duration="6"  state="rrrrrrrrrryrryrryrrrrrrrrrrryrryrryr"/>
        <phase duration="3"  state="rrrrrrrrrrrrrrrrrrrrrrrrrrrrrrrrrrrr"/>    
        <phase duration="15" state="rrGrrGrrGrrrrrrrrrrrrrrrrrrGrrGrrGrr"/>
        <phase duration="6"  state="rryrryrryrrrrrrrrrrrrrrrrrryrryrryrr"/>
        <phase duration="3"  state="rrrrrrrrrrrrrrrrrrrrrrrrrrrrrrrrrrrr"/>
        <phase duration="15" state="GrrGrrGrrrrGrrGrrGrrrrrrrrrrrrrrrrrr"/>
        <phase duration="6"  state="yrryrryrrrryrryrryrrrrrrrrrrrrrrrrrr"/>
        <phase duration="3"  state="rrrrrrrrrrrrrrrrrrrrrrrrrrrrrrrrrrrr"/>
        <phase duration="15" state="rrrrrrrrrGrrGrrGrrrrGrrGrrGrrrrrrrrr"/>
        <phase duration="6"  state="rrrrrrrrryrryrryrrrryrryrryrrrrrrrrr"/>
        <phase duration="3"  state="rrrrrrrrrrrrrrrrrrrrrrrrrrrrrrrrrrrr"/>
    </tlLogic>

    <junction id="end1" type="dead_end" x="0.00" y="500.00" incLanes="junction_end1_0 junction_end1_1 junction_end1_2" intLanes="" shape="0.00,500.00 9.60,500.00 0.00,500.00"/>
    <junction id="end2" type="dead_end" x="500.00" y="0.00" incLanes="junction_end2_0 junction_end2_1 junction_end2_2" intLanes="" shape="500.00,0.00 500.00,-9.60 500.00,0.00"/>
    <junction id="end4" type="dead_end" x="-500.00" y="0.00" incLanes="junction_end4_0 junction_end4_1 junction_end4_2" intLanes="" shape="-500.00,0.00 -500.00,9.60 -500.00,0.00"/>
    <junction id="end5" type="dead_end" x="500.00" y="-500.00" incLanes="junction_end5_0 junction_end5_1 junction_end5_2" intLanes="" shape="500.00,-500.00 500.00,-509.60 500.00,-500.00"/>
    <junction id="end6" type="dead_end" x="0.00" y="-1000.00" incLanes="junction_end6_0 junction_end6_1 junction_end6_2" intLanes="" shape="0.00,-1000.00 -9.60,-1000.00 0.00,-1000.00"/>
    <junction id="end7" type="dead_end" x="-500.00" y="-500.00" incLanes="junction_end7_0 junction_end7_1 junction_end7_2" intLanes="" shape="-500.00,-500.00 -500.00,-490.40 -500.00,-500.00"/>