<?xml version="1.0" encoding="UTF-8"?>

<routes xmlns:xsi="http://www.w3.org/2001/XMLSchema-instance" xsi:noNamespaceSchemaLocation="http://sumo.dlr.de/xsd/routes_file.xsd">
    <vehicle id="vehev1" type="ev_passenger" depart="1250.00" departLane="best" departSpeed="max">
        <route edges="end1_junction junction_end3"/>
    </vehicle>
</routes>